# CIF file created by FINDSYM, version 7.1.3

data_findsym-output
_audit_creation_method FINDSYM

_cell_length_a    7.6313190000
_cell_length_b    13.5007661000
_cell_length_c    12.4791309000
_cell_angle_alpha 90.0000000000
_cell_angle_beta  100.8114840000
_cell_angle_gamma 90.0000000000
_cell_volume      1262.8863077995

_symmetry_space_group_name_H-M "P 1 21 1"
_symmetry_Int_Tables_number 4
_space_group.reference_setting '004:P 2yb'
_space_group.transform_Pp_abc a,b,c;0,0,0

loop_
_space_group_symop_id
_space_group_symop_operation_xyz
1 x,y,z
2 -x,y+1/2,-z

loop_
_atom_site_label
_atom_site_type_symbol
_atom_site_symmetry_multiplicity
_atom_site_Wyckoff_label
_atom_site_fract_x
_atom_site_fract_y
_atom_site_fract_z
_atom_site_occupancy
_atom_site_fract_symmform
H1  H    2 a 0.31863  0.35798  0.70406  1.00000 Dx,Dy,Dz 
H2  H    2 a 0.52089  0.38198  0.20997  1.00000 Dx,Dy,Dz 
H3  H    2 a 0.74769  0.57007  0.74809  1.00000 Dx,Dy,Dz 
H4  H    2 a 0.12441  0.68362  -0.05602 1.00000 Dx,Dy,Dz 
H5  H    2 a 0.58312  0.70146  0.89160  1.00000 Dx,Dy,Dz 
H6  H    2 a 0.03632  0.36755  0.28930  1.00000 Dx,Dy,Dz 
H7  H    2 a 0.86652  0.27614  0.85765  1.00000 Dx,Dy,Dz 
H8  H    2 a 0.76034  0.58786  0.29021  1.00000 Dx,Dy,Dz 
H9  H    2 a -0.05876 -0.01628 0.45616  1.00000 Dx,Dy,Dz 
H10 H    2 a 0.47701  -0.08108 0.51579  1.00000 Dx,Dy,Dz 
H11 H    2 a 0.22690  0.61302  0.70160  1.00000 Dx,Dy,Dz 
H12 H    2 a 0.24982  0.57101  0.22471  1.00000 Dx,Dy,Dz 
C1  C    2 a 0.22104  0.35855  0.75955  1.00000 Dx,Dy,Dz 
C2  C    2 a 0.57899  0.41528  0.14333  1.00000 Dx,Dy,Dz 
C3  C    2 a 0.61283  0.56607  0.69670  1.00000 Dx,Dy,Dz 
C4  C    2 a 0.19786  0.61243  -0.05106 1.00000 Dx,Dy,Dz 
C5  C    2 a 0.70151  0.67465  -0.05092 1.00000 Dx,Dy,Dz 
C6  C    2 a 0.14601  0.35935  0.24323  1.00000 Dx,Dy,Dz 
C7  C    2 a 0.80864  0.34103  0.89192  1.00000 Dx,Dy,Dz 
C8  C    2 a 0.70100  0.61233  0.36003  1.00000 Dx,Dy,Dz 
C9  C    2 a 0.85485  -0.05881 0.50161  1.00000 Dx,Dy,Dz 
C10 C    2 a 0.39619  0.85332  0.48627  1.00000 Dx,Dy,Dz 
C11 C    2 a 0.12512  0.65263  0.64212  1.00000 Dx,Dy,Dz 
C12 C    2 a 0.14129  0.61320  0.25112  1.00000 Dx,Dy,Dz 
O1  O    2 a 0.27518  0.39741  0.85382  1.00000 Dx,Dy,Dz 
O2  O    2 a 0.06724  0.32346  0.72986  1.00000 Dx,Dy,Dz 
O3  O    2 a 0.47401  0.42279  0.05006  1.00000 Dx,Dy,Dz 
O4  O    2 a 0.74011  0.44229  0.16455  1.00000 Dx,Dy,Dz 
O5  O    2 a 0.48690  0.52422  0.73119  1.00000 Dx,Dy,Dz 
O6  O    2 a 0.59604  0.60656  0.60210  1.00000 Dx,Dy,Dz 
O7  O    2 a 0.33301  0.60720  -0.09570 1.00000 Dx,Dy,Dz 
O8  O    2 a 0.13768  0.54205  0.00069  1.00000 Dx,Dy,Dz 
O9  O    2 a 0.71414  0.57968  -0.03775 1.00000 Dx,Dy,Dz 
O10 O    2 a 0.81583  0.73404  -0.00198 1.00000 Dx,Dy,Dz 
O11 O    2 a 0.12903  0.40838  0.15423  1.00000 Dx,Dy,Dz 
O12 O    2 a 0.27800  0.30432  0.28009  1.00000 Dx,Dy,Dz 
O13 O    2 a -0.08278 0.39243  -0.03851 1.00000 Dx,Dy,Dz 
O14 O    2 a 0.64531  0.35928  0.86070  1.00000 Dx,Dy,Dz 
O15 O    2 a 0.79743  0.67159  0.42791  1.00000 Dx,Dy,Dz 
O16 O    2 a 0.54795  0.58055  0.36692  1.00000 Dx,Dy,Dz 
O17 O    2 a 0.88689  0.84781  0.51151  1.00000 Dx,Dy,Dz 
O18 O    2 a 0.73543  -0.01650 0.54204  1.00000 Dx,Dy,Dz 
O19 O    2 a 0.48203  0.77030  0.49149  1.00000 Dx,Dy,Dz 
O20 O    2 a 0.23192  0.86489  0.45078  1.00000 Dx,Dy,Dz 
O21 O    2 a 0.17028  0.67634  0.55105  1.00000 Dx,Dy,Dz 
O22 O    2 a -0.02369 0.67077  0.66794  1.00000 Dx,Dy,Dz 
O23 O    2 a 0.18574  0.66612  0.33736  1.00000 Dx,Dy,Dz 
O24 O    2 a -0.01610 0.60831  0.19744  1.00000 Dx,Dy,Dz 
Zn1 Zn   2 a 0.50543  0.48288  0.89434  1.00000 Dx,Dy,Dz 
Zn2 Zn   2 a 0.19932  0.38499  0.00330  1.00000 Dx,Dy,Dz 
Zn3 Zn   2 a -0.09060 0.50931  0.07478  1.00000 Dx,Dy,Dz 
Zn4 Zn   2 a 0.74290  0.73427  0.57469  1.00000 Dx,Dy,Dz 
Zn5 Zn   2 a 0.38014  0.62339  0.47276  1.00000 Dx,Dy,Dz 
Zn6 Zn   2 a -0.03172 0.25911  0.58408  1.00000 Dx,Dy,Dz 
