
#======================================================================
# CRYSTAL DATA
#----------------------------------------------------------------------
data_VESTA_phase_1

_chemical_name_common                  'C12 H12 O24 Zn6'
_cell_length_a                         7.6418(11)
_cell_length_b                         13.6087(16)
_cell_length_c                         12.556(2)
_cell_angle_alpha                      90.000000
_cell_angle_beta                       101.433(12)
_cell_angle_gamma                      90.000000
_cell_volume                           1279.840517
_space_group_name_H-M_alt              'P 21'
_space_group_IT_number                 4

loop_
_space_group_symop_operation_xyz
   'x, y, z'
   '-x, y+1/2, -z'

loop_
   _atom_site_label
   _atom_site_occupancy
   _atom_site_fract_x
   _atom_site_fract_y
   _atom_site_fract_z
   _atom_site_adp_type
   _atom_site_U_iso_or_equiv
   _atom_site_type_symbol
   Zn1        1.0     0.50012(14)  0.48855(8)   0.89846(9)  Uiso  ? Zn
   Zn2        1.0     0.19692(15)  0.38249(8)   0.00038(10) Uiso  ? Zn
   Zn3        1.0     0.90839(14)  0.50456(8)   0.07440(8)  Uiso  ? Zn
   Zn4        1.0     0.72824(14)  0.73775(8)   0.57385(8)  Uiso  ? Zn
   Zn5        1.0     0.36705(14)  0.62428(8)   0.47754(9)  Uiso  ? Zn
   Zn6        1.0     0.98672(14)  0.25403(8)   0.58454(8)  Uiso  ? Zn
   O1         1.0     0.2725(9)    0.4019(5)    0.8535(5)   Uiso  ? O
   C1         1.0     0.2283(14)   0.3591(8)    0.7619(7)   Uiso  ? C
   H1         1.0     0.309200     0.361000     0.715500    Uiso  ? H
   O2         1.0     0.0871(10)   0.3155(7)    0.7304(7)   Uiso  ? O
   O3         1.0     0.4704(10)   0.4203(5)    0.0473(7)   Uiso  ? O
   C2         1.0     0.5791(14)   0.4114(8)    0.1377(8)   Uiso  ? C
   H2         1.0     0.534700     0.383000     0.194300    Uiso  ? H
   O4         1.0     0.7367(10)   0.4365(7)    0.1579(7)   Uiso  ? O
   O5         1.0     0.4813(10)   0.5373(7)    0.7381(7)   Uiso  ? O
   C3         1.0     0.6015(14)   0.5762(8)    0.7021(8)   Uiso  ? C
   H3         1.0     0.714700     0.578100     0.746200    Uiso  ? H
   O6         1.0     0.5813(9)    0.6144(5)    0.6078(5)   Uiso  ? O
   O7         1.0     0.3290(10)   0.6057(7)    0.9153(7)   Uiso  ? O
   C4         1.0     0.1927(14)   0.6081(7)    0.9570(10)  Uiso  ? C
   H4         1.0     0.129800     0.666900     0.952800    Uiso  ? H
   O8         1.0     0.1349(10)   0.5378(5)    0.0037(7)   Uiso  ? O
   O9         1.0     0.7141(9)    0.5799(5)    0.9706(7)   Uiso  ? O
   C5         1.0     0.6985(14)   0.6742(8)    0.9594(8)   Uiso  ? C
   H5         1.0     0.595200     0.699000     0.915800    Uiso  ? H
   O10        1.0     0.8138(9)    0.7333(7)    0.0034(5)   Uiso  ? O
   O11        1.0     0.1253(9)    0.4012(5)    0.1499(5)   Uiso  ? O
   C6         1.0     0.1487(13)   0.3601(8)    0.2418(8)   Uiso  ? C
   H6         1.0     0.060700     0.368400     0.282700    Uiso  ? H
   O12        1.0     0.2831(9)    0.3083(7)    0.2825(7)   Uiso  ? O
   O13        1.0     0.9150(9)    0.3920(7)    0.9576(7)   Uiso  ? O
   C7         1.0     0.8059(13)   0.3501(8)    0.8850(8)   Uiso  ? C
   H7         1.0     0.848500     0.299300     0.847500    Uiso  ? H
   O14        1.0     0.6438(10)   0.3707(7)    0.8586(7)   Uiso  ? O
   O15        1.0     0.7790(9)    0.6712(5)    0.4297(5)   Uiso  ? O
   C8         1.0     0.6844(13)   0.6121(8)    0.3648(8)   Uiso  ? C
   H8         1.0     0.731200     0.588900     0.306500    Uiso  ? H
   O16        1.0     0.5337(10)   0.5826(7)    0.3730(7)   Uiso  ? O
   O17        1.0     0.8733(9)    0.8455(5)    0.5079(7)   Uiso  ? O
   C9         1.0     0.8502(14)   0.9382(7)    0.4985(8)   Uiso  ? C
   H9         1.0     0.929200     0.974900     0.466900    Uiso  ? H
   O18        1.0     0.7258(10)   0.9817(5)    0.5299(7)   Uiso  ? O
   O19        1.0     0.4680(9)    0.7696(5)    0.4908(7)   Uiso  ? O
   C10        1.0     0.3785(14)   0.8495(8)    0.4786(10)  Uiso  ? C
   H10        1.0     0.441300     0.907300     0.498600    Uiso  ? H
   O20        1.0     0.2152(10)   0.8573(5)    0.4424(7)   Uiso  ? O
   O21        1.0     0.1534(9)    0.6759(5)    0.5500(5)   Uiso  ? O
   C11        1.0     0.1122(13)   0.6553(7)    0.6411(8)   Uiso  ? C
   H11        1.0     0.197400     0.624400     0.693700    Uiso  ? H
   O22        1.0     0.9621(10)   0.6744(7)    0.6636(7)   Uiso  ? O
   O23        1.0     0.1680(9)    0.6597(5)    0.3422(5)   Uiso  ? O
   C12        1.0     0.1288(13)   0.6080(7)    0.2550(8)   Uiso  ? C
   H12        1.0     0.221400     0.575900     0.231200    Uiso  ? H
   O24        1.0     0.9757(10)   0.5982(5)    0.2006(5)   Uiso  ? O
